data_global
_cell_length_a 10.14
_cell_length_b 5.86
_cell_length_c 5
_cell_angle_alpha 90
_cell_angle_beta 90
_cell_angle_gamma 90
_symmetry_space_group_name_H-M 'P -1'
loop_
_symmetry_equiv_pos_as_xyz
  'x,y,z'
loop_
_atom_site_label
_atom_site_fract_x
_atom_site_fract_y
_atom_site_fract_z
B 0.500009 0.00423403 -0.000630956
B 0.666674 0.00423403 -0.000630956
B 0.833344 0.00423403 -0.000630956
B 0.583344 0.251674 -0.000630956
B 0.749514 0.251674 -0.000630956
B 0.500009 0.504234 -0.000630956
B 0.666674 0.504234 -0.000630956
B 0.833344 0.504234 -0.000630956
B 0.583344 0.751674 -0.000630956
B 0.749514 0.751674 -0.000630956
B 9.1789e-06 0.00423403 -0.000630956
B 0.166674 0.00423403 -0.000630956
B 0.333344 0.00423403 -0.000630956
B 0.0833442 0.251674 -0.000630956
B 0.249514 0.251674 -0.000630956
B 9.1789e-06 0.504234 -0.000630956
B 0.166674 0.504234 -0.000630956
B 0.333344 0.504234 -0.000630956
B 0.0833442 0.751674 -0.000630956
B 0.249514 0.751674 -0.000630956
